Version 4
SHEET 1 880 680
SYMBOL fin\ du\ td\ 1 32 96 R0
SYMATTR InstName X1
