Version 4
SHEET 1 880 680
WIRE 720 -112 208 -112
WIRE 208 -96 208 -112
WIRE 208 -96 48 -96
WIRE 432 -16 336 -16
WIRE -752 0 -992 0
WIRE 48 0 48 -96
WIRE 48 0 -528 0
WIRE 336 0 336 -16
WIRE 336 0 96 0
WIRE -992 16 -992 0
WIRE 720 32 720 -32
WIRE -752 80 -800 80
WIRE -352 80 -528 80
WIRE -800 96 -800 80
WIRE -800 96 -992 96
WIRE 208 128 208 -96
WIRE -992 144 -992 96
WIRE 96 144 96 0
WIRE 176 144 96 144
WIRE 336 160 336 64
WIRE 336 160 240 160
WIRE 432 160 432 64
WIRE 432 160 336 160
WIRE 560 160 432 160
WIRE 720 160 640 160
WIRE 800 160 720 160
WIRE -496 176 -560 176
WIRE -352 176 -352 80
WIRE -352 176 -432 176
WIRE -288 176 -352 176
WIRE -144 176 -208 176
WIRE -16 176 -144 176
WIRE 176 176 -16 176
WIRE -560 224 -560 176
WIRE -144 240 -144 176
WIRE -16 240 -16 176
WIRE 96 240 96 144
WIRE 720 256 720 160
WIRE -560 320 -560 304
WIRE -144 320 -144 304
WIRE -144 320 -560 320
WIRE -16 320 -144 320
WIRE 96 320 -16 320
WIRE 208 320 208 192
WIRE 208 320 96 320
WIRE 720 320 208 320
WIRE 720 368 720 320
FLAG 720 368 0
FLAG 720 32 0
FLAG 800 160 ADC
FLAG -992 144 0
SYMBOL OpAmps\\LTC1050 208 96 R0
SYMATTR InstName U1
SYMBOL res 80 224 R0
SYMATTR InstName R1
SYMATTR Value 1K
SYMBOL res -32 224 R0
SYMATTR InstName R2
SYMATTR Value 100k
SYMBOL res 656 144 R90
WINDOW 0 0 56 VBottom 2
WINDOW 3 32 56 VTop 2
SYMATTR InstName R3
SYMATTR Value 1k
SYMBOL res 448 80 R180
WINDOW 0 36 76 Left 2
WINDOW 3 36 40 Left 2
SYMATTR InstName R4
SYMATTR Value 100k
SYMBOL res -304 192 R270
WINDOW 0 32 56 VTop 2
WINDOW 3 0 56 VBottom 2
SYMATTR InstName R5
SYMATTR Value 10k
SYMBOL cap -160 240 R0
SYMATTR InstName C1
SYMATTR Value 100n
SYMBOL cap 320 0 R0
SYMATTR InstName C2
SYMATTR Value 100”
SYMBOL cap 704 256 R0
SYMATTR InstName C3
SYMATTR Value 100n
SYMBOL voltage 720 -128 R0
WINDOW 123 0 0 Left 0
WINDOW 39 0 0 Left 0
SYMATTR InstName V1
SYMATTR Value 5
SYMBOL voltage -992 0 R0
WINDOW 123 0 0 Left 0
WINDOW 39 0 0 Left 0
SYMATTR InstName V2
SYMATTR Value PULSE(0 1 0.2 0.1 0.1 2)
SYMBOL voltage -560 208 R0
WINDOW 123 0 0 Left 0
WINDOW 39 0 0 Left 0
SYMATTR InstName V3
SYMATTR Value SINE(0 325 50)
SYMBOL cap -432 160 R90
WINDOW 0 0 32 VBottom 2
WINDOW 3 32 32 VTop 2
SYMATTR InstName C4
SYMATTR Value 1p
SYMBOL symbole -672 32 R0
SYMATTR InstName X1
TEXT -296 -72 Left 2 !.tran 5
TEXT -304 -136 Left 2 !;ac dec 100 1 1G
TEXT -312 -296 Left 2 !.param G0 10n\n.param G1 10n\n.param r1 100k
